Version 4
SHEET 1 1068 804
WIRE 192 32 80 32
WIRE 336 32 272 32
WIRE 384 32 336 32
WIRE 496 32 464 32
WIRE 544 32 496 32
WIRE 864 32 624 32
WIRE 80 96 80 32
WIRE 336 96 336 32
WIRE 336 208 336 176
WIRE 80 224 80 176
WIRE 752 240 752 160
WIRE 832 240 816 240
WIRE 752 256 752 240
WIRE 752 256 704 256
WIRE 256 272 144 272
WIRE 416 272 336 272
WIRE 576 272 416 272
WIRE 832 272 832 240
WIRE 800 288 704 288
WIRE 496 304 496 32
WIRE 576 304 496 304
WIRE 144 320 144 272
WIRE 416 320 416 272
WIRE 752 320 704 320
WIRE 800 336 800 288
WIRE 752 416 752 320
WIRE 864 416 864 32
WIRE 864 416 752 416
WIRE 944 416 864 416
WIRE 144 432 144 400
WIRE 416 448 416 400
WIRE -16 608 -16 560
WIRE 96 608 -16 608
WIRE -16 656 -16 608
WIRE 96 656 96 608
WIRE -16 784 -16 736
WIRE 96 784 96 720
FLAG 144 432 0
FLAG 80 224 0
FLAG 416 448 0
FLAG 336 208 0
FLAG 832 272 0
FLAG 800 336 0
FLAG 752 160 VCC
IOPIN 752 160 In
FLAG 144 272 Vsig
FLAG 336 32 A
FLAG 496 32 B
FLAG 416 272 Vin
FLAG 944 416 Vamp
IOPIN 944 416 Out
FLAG -16 784 0
FLAG 96 784 0
FLAG -16 560 VCC
IOPIN -16 560 Out
SYMBOL voltage 80 80 R0
SYMATTR InstName Vref
SYMATTR Value 3.3
SYMBOL res 288 16 R90
WINDOW 0 0 56 VBottom 2
WINDOW 3 32 56 VTop 2
SYMATTR InstName R1
SYMATTR Value 1.22k
SYMBOL res 352 192 R180
WINDOW 0 36 76 Left 2
WINDOW 3 36 40 Left 2
SYMATTR InstName R2
SYMATTR Value 1k
SYMBOL res 368 48 R270
WINDOW 0 32 56 VTop 2
WINDOW 3 0 56 VBottom 2
SYMATTR InstName RG
SYMATTR Value 10k
SYMBOL res 528 48 R270
WINDOW 0 32 56 VTop 2
WINDOW 3 0 56 VBottom 2
SYMATTR InstName RF
SYMATTR Value 66k
SYMBOL voltage 144 304 R0
WINDOW 3 24 44 Left 2
WINDOW 123 0 0 Left 0
WINDOW 39 0 0 Left 0
SYMATTR Value 2.51
SYMATTR InstName Vs
SYMBOL res 352 256 R90
WINDOW 0 0 56 VBottom 2
WINDOW 3 32 56 VTop 2
SYMATTR InstName R3
SYMATTR Value 1000k
SYMBOL res 432 416 R180
WINDOW 0 36 76 Left 2
WINDOW 3 36 40 Left 2
SYMATTR InstName R4
SYMATTR Value 1000k
SYMBOL TLV9054 640 288 R0
SYMATTR InstName U1
SYMBOL cap 816 224 R90
WINDOW 0 0 32 VBottom 2
WINDOW 3 32 32 VTop 2
SYMATTR InstName CU1
SYMATTR Value 100n
SYMBOL voltage -16 640 R0
SYMATTR InstName VCC
SYMATTR Value 3.3
SYMBOL cap 80 656 R0
SYMATTR InstName CBulk
SYMATTR Value 10µ
TEXT 88 552 Left 2 !.dc Vs 3.246 2.611 -0.01
